*MODEL INPUT FILE            B    99     1    99   999     0
*FILES              
MODEL          MZCER046
FILEX          USAID001.MZX                                                                                 
FILEA          USAID001.MZA                                                                                 
FILET          USAID001.MZT                                                                                 
SPECIES        MZCER046.SPE                                                                                 
ECOTYPE        MZCER046.ECO                                                                                 
CULTIVAR       MZCER046.CUL                                                                                 
PESTS          MZCER046.PST ///forecast/models/dssat-csm/Pest/                                              
SOILS          SOIL.SOL                                                                                     
WEATHERW       USAID099.WTH                                                                                 
OUTPUT         OVERVIEW
*SIMULATION CONTROL 
                   1     1     S 2021105  2150 simctr1                  
                   Y     Y     N     N     N     N     N     N     M
                   M     M     E     R     S     C     R     1     G     S     2     D     0
                   R     N     N     R     M
                   N     N     Y     1     Y     N     N     N     N     N     N     N     N
!AUTOMATIC MANAGEM  
                   -99     -99   50.  100.   30.   40.   10.
                 30.   50.  100. GS000 IR001  10.0 1.000
                 30.   50.   25. FE001 GS000
                100.     1   20.
                     0     -99  100.    0.
*EXP.DETAILS        
  1USAID001 MZ limatic forecasts                                           
*TREATMENTS         
 99 1 0 0 USAID                    
*CULTIVARS          
   MZ CROP00 DK7088          
*FIELDS             
   USAID    USAID099   0.0  -99. DR000  -99. 100.0   -99 SCL    -99. USAID00001
         -99.00000       -99.00000    -99.00               1.0  100.   1.0 -99.0  -99    -99
*INITIAL CONDITIONS 
               0     0     0  1.00  1.00   0.0     0  0.00  0.00  100.    0.
      5. 0.267   0.0   0.0
     15. 0.279   0.0   0.0
     30. 0.296   0.0   0.0
     45. 0.311   0.0   0.0
     60. 0.311   0.0   0.0
     80. 0.310   0.0   0.0
    100. 0.310   0.0   0.0
*PLANTING DETAILS   
   2021121     -99   1.0   6.2     S     R   80.    1.   1.0  -99.  -99. -99.0 -99.0 -99.0
*IRRIGATION         
   1.000    0.    0.    0. GS000 IR001   0.0
*FERTILIZERS        
*RESIDUES           
*CHEMICALS          
*TILLAGE            
*ENVIRONMENT        
*HARVEST            
*SOIL               
 USAID00001  COL   San   SCL    -99.   ISRIC soilgrids + HC27 Baja fertilidad          
 Garzon      olombia       2.625 -75.458 C_GEN0011                                         
 BK     0.10   6.0  0.50   75.  1.00  1.00 SA001 SA001 SA001 -99  
    5.       0.153 0.267 0.400 1.000 0.620  1.10 3.000  25.3  27.5 -99.0  -9.0  6.21-99.00 22.50-99.00
   15.       0.164 0.279 0.404 0.850 0.510  1.12 2.600  27.2  26.7 -99.0  -9.0  6.27-99.00 19.60-99.00
   30.       0.179 0.296 0.409 0.700 0.380  1.15 2.200  29.9  25.5 -99.0  -9.0  6.37-99.00 19.10-99.00
   45.       0.193 0.311 0.415 0.500 0.290  1.20 1.600  32.2  24.3 -99.0  -9.0  6.48-99.00 20.00-99.00
   60.       0.193 0.311 0.415 0.500 0.290  1.20 1.600  32.2  24.3 -99.0  -9.0  6.48-99.00 20.00-99.00
   80.       0.193 0.310 0.414 0.380 0.290  1.26 1.000  32.2  23.6 -99.0  -9.0  6.62-99.00 20.00-99.00
  100.       0.193 0.310 0.414 0.380 0.290  1.26 1.000  32.2  23.6 -99.0  -9.0  6.62-99.00 20.00-99.00
                    
    5.-99.00 -99.0 -99.0 -99.0 -99.0 -99.0 -99.0 -99.0 -99.0 -99.0-99.00 -99.0 -99.0 -99.0 -99.0 -99.0  -99.
   15.-99.00 -99.0 -99.0 -99.0 -99.0 -99.0 -99.0 -99.0 -99.0 -99.0-99.00 -99.0 -99.0 -99.0 -99.0 -99.0  -99.
   30.-99.00 -99.0 -99.0 -99.0 -99.0 -99.0 -99.0 -99.0 -99.0 -99.0-99.00 -99.0 -99.0 -99.0 -99.0 -99.0  -99.
   45.-99.00 -99.0 -99.0 -99.0 -99.0 -99.0 -99.0 -99.0 -99.0 -99.0-99.00 -99.0 -99.0 -99.0 -99.0 -99.0  -99.
   60.-99.00 -99.0 -99.0 -99.0 -99.0 -99.0 -99.0 -99.0 -99.0 -99.0-99.00 -99.0 -99.0 -99.0 -99.0 -99.0  -99.
   80.-99.00 -99.0 -99.0 -99.0 -99.0 -99.0 -99.0 -99.0 -99.0 -99.0-99.00 -99.0 -99.0 -99.0 -99.0 -99.0  -99.
  100.-99.00 -99.0 -99.0 -99.0 -99.0 -99.0 -99.0 -99.0 -99.0 -99.0-99.00 -99.0 -99.0 -99.0 -99.0 -99.0  -99.
                    
    5.-99.00-99.00-99.00-99.00
   15.-99.00-99.00-99.00-99.00
   30.-99.00-99.00-99.00-99.00
   45.-99.00-99.00-99.00-99.00
   60.-99.00-99.00-99.00-99.00
   80.-99.00-99.00-99.00-99.00
  100.-99.00-99.00-99.00-99.00
*CULTIVAR           
CROP00 DK7088           IB0001  229.0 0.300 971.0 957.0  7.80 48.00
