*EXP.DETAILS: USAID001MZ limatic forecasts                                           

*FILES
@N  EXP.DATA    AFILE        ADIR
  1 EXP         USAID001.MZA                                                                                 
@N  SPECIES     SPFILE       SPDIR
  1 SPE         MZCER046.SPE                                                                                 
@N  ECOTYPE     EFILE        EDIR
  1 ECO         MZCER046.ECO                                                                                 
@N  CULTIVAR    CFILE        CDIR
  1 CUL         MZCER046.CUL                                                                                 
@N  SOIL        SFILE        SDIR
  1 SOIL        SOIL.SOL                                                                                     
@N  WEATHER     WFILE        WDIR
  1 WEATH       USAID099.WTH                                                                                 

*SIMULATION CONTROL
@N  GENERAL     NYERS NREPS START   SDATE RSEED SNAME.................... MODEL...
  1 GE              1     1     S 2021105  2150 simctr1                   MZCER046
@N  OPTIONS     WATER NITRO SYMBI PHOSP POTAS DISES  CHEM  TILL   CO2
  1 OP              Y     Y     N     N     N     N     N     N     M
@N  METHODS     WTHER INCON LIGHT EVAPO INFIL PHOTO HYDRO NSWIT SOMDY MESEV MESOL METMP MEGHG
  1 ME              M     M     E     R     S     C     R     1     G     S     2     D     0
@N  MANAGEMENT  PLANT IRRIG FERTI RESID HARVS
  1 MA              R     N     N     R     M
@N  OUTPUTS     FNAME OVVEW SUMRY FROPT GROUT CAOUT WAOUT NIOUT MIOUT DIOUT  LONG CHOUT OPOUT
  1 OU              N     N     Y     1     Y     N     N     N     N     N     N     N     N

!AUTOMATIC MANAGEM
@N  PLANTING      PFRST   PLAST PH2OL PH2OU PH2OD PSTMX PSTMN
  1 PL              -99     -99   50.  100.   30.   40.   10.
@N  IRRIGATION  IMDEP ITHRL ITHRU IROFF IMETH IRAMT IREFF
  1 IR            30.   50.  100. GS000 IR001  10.0 1.000
@N  NITROGEN    NMDEP NMTHR NAMNT NCODE NAOFF
  1 NI            30.   50.   25. FE001 GS000
@N  RESIDUES    RIPCN RTIME RIDEP
  1 RE           100.     1   20.
@N  HARVEST     HFRST   HLAST HPCNP HRCNR
  1 HA              0     -99  100.    0.

*TREATMENTS
@N   R O C TNAME....................  CU  FL  SA  IC  MP  MI  MF  MR  MC  MT  ME  MH  SM
 99  1 0 0 USAID                       1  99   0   0   1   0   0   0   0   0   0   0   1

*CULTIVARS
@C  CR INGENO CNAME
  1 MZ CROP00 DK7088          

*FIELDS
@L  ID_FIELD WSTA....  FLSA  FLOB  FLDT  FLDD  FLDS  FLST SLTX   SLDP ID_SOIL
 99 USAID    USAID099   0.0  -99. DR000  -99.  100.   -99 SCL    -99. USAID00001
@L             XCRD            YCRD      ELEV              AREA  SLEN  FLWR  SLAS PRMGT
 99       -99.00000       -99.00000    -99.00               1.0  100.   1.0 -99.0  -99    -99

*INITIAL CONDITIONS
@C  PCR     ICDAT  ICRT  ICND  ICRN  ICRE  ICWD ICRES ICREN ICREP ICRIP ICRID
  0             0     0     0  1.00  1.00   0.0     0  0.00  0.00  100.    0.
@C   ICBL  SH2O  SNH4  SNO3
  0    5. 0.267   0.0   0.0
  0   15. 0.279   0.0   0.0
  0   30. 0.296   0.0   0.0
  0   45. 0.311   0.0   0.0
  0   60. 0.311   0.0   0.0
  0   80. 0.310   0.0   0.0
  0  100. 0.310   0.0   0.0

*PLANTING DETAILS
@P    PDATE   EDATE  PPOP  PPOE  PLME  PLDS  PLRS  PLRD  PLDP  PLWT  PAGE  PENV  PLPH  SPRL
  1 2021121     -99   1.0   6.2     S     R   80.    1.   1.0  -99.  -99. -99.0 -99.0 -99.0

*IRRIGATION
@I   IEFF  IDEP  ITHR  IEPT  IOFF  IAME  IAMT
  0 1.000    0.    0.    0. GS000 IR001   0.0
@I    IDATE  IROP IRVAL

*FERTILIZERS
@F    FDATE  FMCD  FACD  FDEP  FAMN  FAMP  FAMK  FAMC  FAMO  FOCD

*RESIDUES
@R    RDATE  RCOD  RAMT  RESN  RESP  RESK  RINP  RDEP  RMET

*CHEMICALS
@C    CDATE CHCOD CHAMT  CHME CHDEP   CHT

*TILLAGE
@T    TDATE TIMPL  TDEP

*ENVIRONMENT
@E    ODATE  EDAY  ERAD  EMAX  EMIN ERAIN  ECO2  EDEW EWIND

*HARVEST
@H    HDATE  HSTG  HCOM HSIZE   HPC  HBPC
